Version 4
SHEET 1 880 680
WIRE 144 176 16 176
WIRE 272 176 224 176
WIRE 368 176 272 176
FLAG 16 256 0
FLAG 272 256 0
FLAG 368 240 0
FLAG 368 176 Vg
SYMBOL voltage 16 160 R0
WINDOW 3 -296 137 Left 2
WINDOW 123 0 0 Left 0
WINDOW 39 0 0 Left 0
SYMATTR Value PULSE(0 3.3 1m 1u 1u {duty} 25u)
SYMATTR InstName V1
SYMBOL res 240 160 R90
WINDOW 0 0 56 VBottom 2
WINDOW 3 32 56 VTop 2
SYMATTR InstName R1
SYMATTR Value 220k
SYMBOL res 256 160 R0
SYMATTR InstName R2
SYMATTR Value 50k
SYMBOL cap 352 176 R0
SYMATTR InstName C1
SYMATTR Value 1µ
TEXT 128 8 Left 2 !.tran 500m
TEXT 128 32 Left 2 !.param duty=2.5u
